test_diag_manager
2 1 1 0 0 0

#output files
 "test_diag_manager",  1, "days", 1, "days", "time"

#output variables
 "test_diag_manager_mod", "sst", "sst", "test_diag_manager",  "all", .false., "none", 2
 "test_diag_manager_mod", "ice", "ice", "test_diag_manager",  "all", .false., "none", 2
 "test_diag_manager_mod", "wut", "wut", "test_diag_manager",  "all", .false., "none", 2
 "test_diag_manager_mod", "huh", "huh", "test_diag_manager",  "all", .false., "none", 2
 "test_diag_manager_mod", "pop", "pop", "test_diag_manager",  "all", .false., "none", 2
